Metadata-Version: 2.4
Name: macti
Version: 0.3.0
Summary: Biblioteca para evaluación de Jupyter Notebooks, Visualización de datos y Simulación de flujos, todo orientado a la enseñanza en nivel licenciatura.
Author-email: Luis Miguel de la Cruz Salas <luiggi@igeofisica.unam.mx>
Description-Content-Type: text/markdown
Requires-Dist: pyarrow
Requires-Dist: sympy
Requires-Dist: flopy


# MACTI_LIB 

**Autor** 
* Luis M. de la Cruz Salas. Instituto de Geofísica, UNAM.

**Colaboradores**
* Miguel A. Pérez León. Facultad de Ciencias, UNAM.

# Antecedentes
**MACTI_LIB** es una biblioteca desarrollada en el marco de los proyectos del programa UNAM-DGAPA-PAPIME (PE101019, PE101922, PE106025) y con apoyo del concurso InnovaUNAM para la Enseñanza y Aprendizaje de Contenidos Curriculares Prácticos en Ciencias y Humanidades a Distancia 2021 de la UNAM. Originalmente, esta biblioteca fue concebida para crear herramientas para apoyar la evaluación de ejercicios numéricos en Jupyter Notebooks, para la visualización de datos y para la simulación de fenómenos geofísicos simples. Todo lo anterior orientado ha complementar el proceso de enseñanza-aprendizaje en asignaturas de licenciaturas de ciencias e ingeniería. Actualmente, la biblioteca ha evolucionado y se ha reorganizado, pero sigue manteniendo el espíritu de ofrecer herramientas para la enseñanza y el aprendizaje en áreas STEM (Sciencie, Technology, Engineering, Mathematics); las características que contiene se describen a continuación.

# Características y módulos.

* Evaluación.
* Visualización.
* Simulación.
* MODFLOW 6.

